Circuit: * C:\Users\Sefa Ozturk\Hogeschool Rotterdam\EAS-ELE_PEE50_2020-2021 - CardioTocoGram - CardioTocoGram\PEE50 CTG\Generator\spice\Generator_V03.asc

Direct Newton iteration failed to find .op point.  (Use ".option noopiter" to skip.)
Starting Gmin stepping
Gmin = 10
Gmin = 1.07374
Gmin = 0.115292
Gmin = 0.0123794
Gmin = 0.00132923
Gmin = 0.000142725
Gmin = 1.5325e-005
Gmin = 1.6455e-006
Gmin = 1.76685e-007
Gmin = 1.89714e-008
Gmin = 2.03704e-009
Gmin = 2.18725e-010
Gmin = 2.34854e-011
Gmin = 2.52173e-012
Gmin = 2.70769e-013
Gmin = 0
Gmin stepping succeeded in finding the operating point.


Date: Fri Apr 16 14:54:56 2021
Total elapsed time: 3.453 seconds.

tnom = 27
temp = 27
method = modified trap
totiter = 114661
traniter = 114179
tranpoints = 54527
accept = 42709
rejected = 11818
matrix size = 81
fillins = 113
solver = Normal
Thread vector: 22.9/13.2[8] 8.4/5.4[8] 3.1/1.9[7] 0.3/0.6[1]  2592/500
Matrix Compiler1: 8.69 KB object code size  2.5/0.8/[0.6]
Matrix Compiler2: 9.55 KB object code size  0.8/1.2/[0.6]

